<?xml version="1.0" encoding="UTF-8"?>

<!-- generated on 2025-02-10 10:32:12 by Eclipse SUMO duarouter Version 1.21.0
<duarouterConfiguration xmlns:xsi="http://www.w3.org/2001/XMLSchema-instance" xsi:noNamespaceSchemaLocation="http://sumo.dlr.de/xsd/duarouterConfiguration.xsd">

    <input>
        <net-file value="network.net.xml"/>
        <route-files value="kochi.trips.xml"/>
    </input>

    <output>
        <output-file value="kochi.rou.xml"/>
    </output>

    <report>
        <ignore-errors value="true"/>
    </report>

</duarouterConfiguration>
-->

<routes xmlns:xsi="http://www.w3.org/2001/XMLSchema-instance" xsi:noNamespaceSchemaLocation="http://sumo.dlr.de/xsd/routes_file.xsd">
    <vehicle id="0" depart="0.00">
        <route edges="307938586#5 307938586#6 307938586#7 307938586#8 307938586#9 307938586#10 -381274155 -381277787#6 -381277787#5 -381277787#4 -381277787#3 -381277787#2 -381277787#1 -381277787#0 1086178352 381277786#0 381277786#1 381277786#2 -1136626834"/>
    </vehicle>
    <vehicle id="1" depart="1.00">
        <route edges="-622930910 -813224299#2 -813224299#1 1348312161 132451706#0 132451706#1 132451706#2 132451706#3 132451706#4 -381277786#5 -597812474#3 -597812474#2"/>
    </vehicle>
    <vehicle id="2" depart="2.00">
        <route edges="508858918#0 -508858918#0 307938586#2 307938586#3 307938586#4 307938586#5 307938586#6 307938586#7 307938586#8 307938586#9 307938586#10 307938586#11 307938586#12 307938586#13 307938586#14 -813224299#1 1348312161 -494188531#2 -622931066#2 -622931066#1 -622931066#0 494072148#1"/>
    </vehicle>
    <vehicle id="3" depart="3.00">
        <route edges="799044668#0 -799044669 -622930847#0 -307938586#15 -307938586#14 -307938586#13 -307938586#12 -307938586#11 -307938586#10"/>
    </vehicle>
    <vehicle id="4" depart="4.00">
        <route edges="-813224299#8 -813224299#7 -813224299#6 -813224299#5 -813224299#4 -813224299#3 -813224299#2 -813224299#1 1348312161 132451706#0 132451706#1 -132451706#1"/>
    </vehicle>
    <vehicle id="5" depart="5.00">
        <route edges="-597812474#1 -597812474#0 -132451706#1 132451706#1"/>
    </vehicle>
    <vehicle id="6" depart="6.00">
        <route edges="-132451706#0 -494188531#2 -494188531#1 -494188531#0"/>
    </vehicle>
    <vehicle id="7" depart="7.00">
        <route edges="307938586#8 307938586#9 307938586#10 307938586#11 307938586#12 307938586#13 307938586#14 -813224299#1 1348312161"/>
    </vehicle>
    <vehicle id="8" depart="8.00">
        <route edges="-597812474#1 -597812474#0 -132451706#1 -132451706#0 -1348312161 813224299#1 -307938586#14 -307938586#13 -307938586#12 307938586#12 307938586#13 307938586#14"/>
    </vehicle>
    <vehicle id="9" depart="9.00">
        <route edges="622930935#0 -622930935#0 1086178347#1 1086178347#2 1086178347#3 1086178347#4 381277787#0 381277787#1 381277787#2 381277787#3 381277787#4 381277787#5 381277787#6 381274155 307938586#11 879886570 813224299#4 813224299#5 813224299#6 813224299#7 813224299#8 1049912323 622931114#0 622931114#1 -1046168925#1"/>
    </vehicle>
    <vehicle id="10" depart="10.00">
        <route edges="622930911 307938586#4 307938586#5 307938586#6 307938586#7 307938586#8 307938586#9 307938586#10 307938586#11 307938586#12 307938586#13 307938586#14 -813224299#1 1348312161 -494188531#2 -494188531#1 494188531#1"/>
    </vehicle>
    <vehicle id="11" depart="11.00">
        <route edges="-622931114#2 -622931114#1 -622931114#0 -1049912323 -813224299#8 -813224299#7 -813224299#6 -813224299#5 -813224299#4 -879886570 879886571 -381277787#6 -381277787#5 -381277787#4 -381277787#3 -381277787#2 -381277787#1 -381277787#0"/>
    </vehicle>
    <vehicle id="12" depart="12.00">
        <route edges="879886569#3 -879886569#3 -879886569#2 -879886569#1 -879886569#0 -813224299#3 -813224299#2 799044668#0 799044668#1 622931117#0 -622931117#0"/>
    </vehicle>
    <vehicle id="13" depart="13.00">
        <route edges="-307938586#12 879886570 -813224299#3 -813224299#2 -307938586#14 -307938586#13"/>
    </vehicle>
    <vehicle id="14" depart="14.00">
        <route edges="622931113#1 622931113#2 622931113#3 -1049912323 813224299#9 813224299#10 622930911 -307938586#3 307938586#3"/>
    </vehicle>
    <vehicle id="15" depart="15.00">
        <route edges="622930911 307938586#4 307938586#5 307938586#6 307938586#7 307938586#8 307938586#9 307938586#10 307938586#11 307938586#12 307938586#13 307938586#14 -813224299#1 1348312161 132451706#0 132451706#1 597812474#0 597812474#1 597812476#0"/>
    </vehicle>
    <vehicle id="16" depart="16.00">
        <route edges="1136626834 381277786#3 381277786#4 381277786#5 381277786#6 -132451706#3 -132451706#2 -132451706#1 -132451706#0 -1348312161 813224299#1 -307938586#14 -307938586#13 -307938586#12 879886571"/>
    </vehicle>
    <vehicle id="17" depart="17.00">
        <route edges="-798637460 798637460 879886569#3 879886569#4 879886569#5 622930798#0 997203788 254516798#1"/>
    </vehicle>
    <vehicle id="18" depart="18.00">
        <route edges="622931066#0 622931066#1 622931066#2 494188531#2 -1348312161 813224299#1 -307938586#14 -307938586#13 -307938586#12 -307938586#11 -307938586#10 -307938586#9 -307938586#8 -307938586#7 -307938586#6 -307938586#5 307938586#5 307938586#6 307938586#7 307938586#8"/>
    </vehicle>
    <vehicle id="19" depart="19.00">
        <route edges="622931114#2 -622931114#2 -622931114#1 -622931114#0 -1049912323 813224299#9 813224299#10 622930911 307938586#4 307938586#5 307938586#6 307938586#7 307938586#8 307938586#9 307938586#10"/>
    </vehicle>
    <vehicle id="20" depart="20.00">
        <route edges="475140667#0 -622931114#2 -622931114#1 -622931114#0 -1049912323 813224299#9 813224299#10 813224299#11 -132452793#3 -132452793#2 -132452793#1 -132452793#0"/>
    </vehicle>
    <vehicle id="21" depart="21.00">
        <route edges="-597812475 597812474#3 381277786#5 381277786#6 -132451706#3 -132451706#2 -132451706#1 -132451706#0 -494188531#2 -622931066#2 -622931066#1 -622931066#0"/>
    </vehicle>
    <vehicle id="22" depart="22.00">
        <route edges="-254518542#2 -254518542#1 -254518542#0 -879886569#1 -879886569#0 -813224299#3 -813224299#2 -813224299#1 1348312161 132451706#0 132451706#1 132451706#2 132451706#3 132451706#4 -381277786#5 -381277786#4 -597812476#1"/>
    </vehicle>
    <vehicle id="23" depart="23.00">
        <route edges="-307938586#14 -307938586#13 -307938586#12 -307938586#11 -307938586#10 -307938586#9 -307938586#8 -307938586#7 -307938586#6 -307938586#5 -307938586#4 -307938586#3 -622931111#2 -622931111#1 -622931033#1 -622931033#0"/>
    </vehicle>
    <vehicle id="24" depart="24.00">
        <route edges="307938586#4 307938586#5 307938586#6 307938586#7 307938586#8 307938586#9 307938586#10 307938586#11 307938586#12 307938586#13 307938586#14 813224299#2 622930910 -799044668#1"/>
    </vehicle>
    <vehicle id="25" depart="25.00">
        <route edges="-759520839#0 813224299#10 622930911 -307938586#3 -307938586#2 508858918#0 -508858918#0"/>
    </vehicle>
    <vehicle id="26" depart="26.00">
        <route edges="-622930889#0 -254516798#2 -622930798#1 -622930798#0 -879886569#5 -879886569#4 -879886569#3 -879886569#2 -879886569#1 -879886569#0 879886569#0 879886569#1"/>
    </vehicle>
    <vehicle id="27" depart="27.00">
        <route edges="307938586#8 307938586#9 307938586#10 -307938586#10 -307938586#9 -307938586#8 -307938586#7 -307938586#6 -307938586#5 307938586#5"/>
    </vehicle>
    <vehicle id="28" depart="28.00">
        <route edges="-381277787#3 -381277787#2 -381277787#1 -381277787#0 1086178352 381277786#0 381277786#1 381277786#2 381277786#3 381277786#4 -597812474#3 597812475"/>
    </vehicle>
    <vehicle id="29" depart="29.00">
        <route edges="-381277787#1 -381277787#0 381277787#0 381277787#1 381277787#2 381277787#3 381277787#4 381277787#5 381277787#6 381274155 -307938586#10 -307938586#9 -307938586#8 -307938586#7 -307938586#6 -307938586#5 -307938586#4 -622930911 -813224299#10"/>
    </vehicle>
    <vehicle id="30" depart="30.00">
        <route edges="988530520 494072148#3 494072148#4 494188531#0 494188531#1 494188531#2 132451706#0 132451706#1 132451706#2 132451706#3 132451706#4 -381277786#5 -381277786#4 -381277786#3 381277786#3"/>
    </vehicle>
    <vehicle id="31" depart="31.00">
        <route edges="132451707#0 1086178350 1086178347#2 1086178348 381277786#0 381277786#1 381277786#2 381277786#3 381277786#4 381277786#5 381277786#6 -132451706#3 -132451706#2 -132451706#1 -132451706#0 -494188531#2 -622931066#2 -622931066#1 988530520 494072148#3"/>
    </vehicle>
    <vehicle id="32" depart="32.00">
        <route edges="622931111#2 307938586#3 307938586#4 307938586#5 307938586#6 307938586#7 307938586#8 307938586#9 307938586#10 307938586#11 307938586#12 307938586#13 307938586#14 799044668#0 799044668#1 622931117#0 -1064307279 -622930889#2 622930889#2"/>
    </vehicle>
    <vehicle id="33" depart="33.00">
        <route edges="-597812475 597812474#3 381277786#5 381277786#6 -132451706#3 -132451706#2 -132451706#1"/>
    </vehicle>
    <vehicle id="35" depart="35.00">
        <route edges="-508858918#0 307938586#2 307938586#3 307938586#4 307938586#5 307938586#6 307938586#7 307938586#8 307938586#9 307938586#10 307938586#11 879886570 879886569#0 879886569#1 879886569#2"/>
    </vehicle>
    <vehicle id="36" depart="36.00">
        <route edges="622943477#1 -622943477#1 -622943477#0 -622931113#2"/>
    </vehicle>
    <vehicle id="37" depart="37.00">
        <route edges="381274155 307938586#11 879886570 813224299#4 813224299#5 813224299#6 -813224299#6"/>
    </vehicle>
    <vehicle id="38" depart="38.00">
        <route edges="813224299#2 813224299#3 813224299#4 813224299#5 813224299#6 813224299#7 813224299#8 1049912323 622931114#0 622931114#1 -1046168925#1 1046168925#1"/>
    </vehicle>
    <vehicle id="39" depart="39.00">
        <route edges="-622930889#0 -254516798#2 -622930798#1"/>
    </vehicle>
    <vehicle id="40" depart="40.00">
        <route edges="132452793#0 132452793#1 132452793#2 132452793#3 132452793#4 -813224299#10 -813224299#9 -813224299#8 -813224299#7 -813224299#6 -813224299#5 -813224299#4 -813224299#3 622930910 -622930910"/>
    </vehicle>
    <vehicle id="41" depart="41.00">
        <route edges="254516798#1 -622930798#1 997203788 -254516798#0 -622931114#2 -622931114#1 -622931114#0 -1049912323 813224299#9 813224299#10 813224299#11"/>
    </vehicle>
    <vehicle id="42" depart="42.00">
        <route edges="-813224299#2 -813224299#1 1348312161 132451706#0 132451706#1 597812474#0 597812474#1 -597812474#1"/>
    </vehicle>
    <vehicle id="43" depart="43.00">
        <route edges="997203788 254516798#1 254516798#2 622930889#0 622930889#1 622930889#2 622930889#3 -622931117#0 -799044668#1 -799044668#0 -813224299#1 1348312161 132451706#0 132451706#1 132451706#2"/>
    </vehicle>
    <vehicle id="44" depart="44.00">
        <route edges="-307938586#11 -307938586#10 -307938586#9 -307938586#8 -307938586#7 -307938586#6 -307938586#5 -307938586#4 -622930911 813224299#11 -132452793#3 -132452793#2 -132452793#1"/>
    </vehicle>
    <vehicle id="45" depart="45.00">
        <route edges="-307938586#2 307938586#2 307938586#3 307938586#4 307938586#5 307938586#6 307938586#7 307938586#8 307938586#9 307938586#10 -381274155 -381277787#6 -381277787#5 -381277787#4 -381277787#3 -381277787#2 -381277787#1 -381277787#0 1086178352 381277786#0"/>
    </vehicle>
    <vehicle id="46" depart="46.00">
        <route edges="622930889#1 -622930889#1 -622930889#0 -254516798#2 -622930798#1 -622930798#0 -879886569#5 -879886569#4 -879886569#3"/>
    </vehicle>
    <vehicle id="47" depart="47.00">
        <route edges="-254516798#1 -997203788 622930798#1 254516798#2 622930889#0 622930889#1 622930889#2 622930889#3 -622931117#0 -622930910 -813224299#2"/>
    </vehicle>
    <vehicle id="48" depart="48.00">
        <route edges="992499750 622931066#2 494188531#2 -1348312161 813224299#1 813224299#2 813224299#3 813224299#4 813224299#5 813224299#6 813224299#7 813224299#8 813224299#9 813224299#10 813224299#11 -132452793#3 -132452793#2 -132452793#1 132452793#1"/>
    </vehicle>
    <vehicle id="49" depart="49.00">
        <route edges="879886569#7 879886569#8 -254518542#2 -254518542#1 -254518542#0 -879886569#1 -879886569#0 -813224299#3 -813224299#2 -813224299#1 1348312161 132451706#0 132451706#1 597812474#0 597812474#1 597812476#0 597812477#0 597812477#1 672555015"/>
    </vehicle>
    <vehicle id="50" depart="50.00">
        <route edges="-1086178348 1086178348 381277786#0 381277786#1 381277786#2 381277786#3 -597812476#1 -597812476#0 597812474#2"/>
    </vehicle>
    <vehicle id="51" depart="51.00">
        <route edges="381277787#0 381277787#1 381277787#2 381277787#3 381277787#4 381277787#5 381277787#6 381274155 307938586#11 879886570 813224299#4 813224299#5 813224299#6 813224299#7 813224299#8 813224299#9 813224299#10 813224299#11 -132452793#3 132452793#3"/>
    </vehicle>
    <vehicle id="52" depart="52.00">
        <route edges="-622930889#0 622930889#0 622930889#1 622930889#2 622930889#3 -622931117#0 -799044668#1 -799044668#0 -813224299#1 1348312161 132451706#0 132451706#1 597812474#0 597812474#1 597812476#0 597812476#1 381277786#4"/>
    </vehicle>
    <vehicle id="53" depart="53.00">
        <route edges="-307938586#2 -307938586#1 -132452791 132452793#2 132452793#3 132452793#4 -813224299#10 -813224299#9 1049912323 622931114#0 622931114#1 622931114#2 475140667#1 -879886569#9 -879886569#8 -879886569#7"/>
    </vehicle>
    <vehicle id="54" depart="54.00">
        <route edges="-879886569#7 -879886569#6 879886569#6"/>
    </vehicle>
    <vehicle id="55" depart="55.00">
        <route edges="622943477#1 -622931114#0 -1049912323 -813224299#8 -813224299#7 -813224299#6 -813224299#5 -813224299#4 -813224299#3 622930910 -622930910"/>
    </vehicle>
    <vehicle id="56" depart="56.00">
        <route edges="1046168969 622930780#1 622931113#1 622931113#2 622943477#0 622943477#1 622931114#1 622931114#2 -475140667#0"/>
    </vehicle>
    <vehicle id="57" depart="57.00">
        <route edges="813224299#11 132452793#4 -813224299#10 759520839#0"/>
    </vehicle>
    <vehicle id="58" depart="58.00">
        <route edges="-622931033#1 -622931033#0 -508858918#0 307938586#2 307938586#3 307938586#4 307938586#5 307938586#6 307938586#7 307938586#8 307938586#9 307938586#10 -381274155 -381277787#6 -381277787#5 -381277787#4 -381277787#3 -381277787#2 -381277787#1 -381277787#0 1086178352 381277786#0 381277786#1 381277786#2 381277786#3"/>
    </vehicle>
    <vehicle id="59" depart="59.00">
        <route edges="307938586#10 307938586#11 307938586#12 307938586#13 307938586#14 -813224299#1 1348312161 132451706#0 132451706#1 132451706#2 132451706#3 132451706#4 -381277786#5"/>
    </vehicle>
    <vehicle id="60" depart="60.00">
        <route edges="597812476#1 381277786#4 381277786#5 381277786#6 -132451706#3 -132451706#2 -132451706#1 -132451706#0 -1348312161 813224299#1 813224299#2 813224299#3 813224299#4 813224299#5 813224299#6 813224299#7 813224299#8 813224299#9 813224299#10 813224299#11 132452793#4"/>
    </vehicle>
    <vehicle id="61" depart="61.00">
        <route edges="622930780#1 -622931113#0 -622930780#0 -132452793#3 -132452793#2 -132452793#1 132452793#1"/>
    </vehicle>
    <vehicle id="62" depart="62.00">
        <route edges="-1046168925#1 1046168925#1 -622931114#1"/>
    </vehicle>
    <vehicle id="63" depart="63.00">
        <route edges="-1125478968 1046168925#1 -622931114#1 -622931114#0 -1049912323 813224299#9 813224299#10 813224299#11 -132452793#3 -132452793#2 -132452793#1 838367502"/>
    </vehicle>
    <vehicle id="64" depart="64.00">
        <route edges="759520839#0 759520839#1 813224299#7 813224299#8 1049912323 -622931113#3 -622931113#2 622931113#2"/>
    </vehicle>
    <vehicle id="65" depart="65.00">
        <route edges="-622931066#2 622931066#2 494188531#2 -1348312161"/>
    </vehicle>
    <vehicle id="66" depart="66.00">
        <route edges="759520839#0 759520839#1 -813224299#6 -813224299#5 -813224299#4 879886569#0 879886569#1 879886569#2 879886569#3"/>
    </vehicle>
    <vehicle id="67" depart="67.00">
        <route edges="-307938586#1 307938586#1 307938586#2 307938586#3 307938586#4 307938586#5 307938586#6 307938586#7 307938586#8 307938586#9 307938586#10 -381274155 -381277787#6 -381277787#5 -381277787#4 -381277787#3 -381277787#2 -381277787#1 -381277787#0 1086178352 132451707#0 1086178350 1086178347#2 1086178348"/>
    </vehicle>
    <vehicle id="68" depart="68.00">
        <route edges="-254516798#2 -622930798#1 997203788 254516798#1 254516798#2 622930889#0 622930889#1 622930889#2 622930889#3 -622931117#0 -799044668#1 -799044669 622930847#1"/>
    </vehicle>
    <vehicle id="69" depart="69.00">
        <route edges="597812477#0 -597812477#0 -597812476#0 -597812474#1 -597812474#0 -132451706#1 -132451706#0 -1348312161 813224299#1 -307938586#14 -307938586#13 -307938586#12 -307938586#11 -307938586#10 -307938586#9 -307938586#8"/>
    </vehicle>
    <vehicle id="70" depart="70.00">
        <route edges="-992499724 -597812474#0 -132451706#1 -132451706#0 -1348312161 813224299#1 813224299#2 813224299#3 879886569#0 879886569#1 254518542#0 254518542#1 254518542#2 879886569#9 879886569#10 254516798#0"/>
    </vehicle>
    <vehicle id="71" depart="71.00">
        <route edges="-622930889#0 -254516798#2 -254516798#1 -254516798#0 -622931114#2 -622931114#1 -622931114#0 -1049912323 813224299#9 759520839#0 759520839#1"/>
    </vehicle>
    <vehicle id="72" depart="72.00">
        <route edges="-813224299#9 813224299#9 813224299#10 622930911 -307938586#3 -622931111#2 -622931111#1 -622931111#0 -508858918#1"/>
    </vehicle>
    <vehicle id="73" depart="73.00">
        <route edges="132451706#0 132451706#1 597812474#0 597812474#1 597812476#0"/>
    </vehicle>
    <vehicle id="74" depart="74.00">
        <route edges="-494188531#0 494188531#0 494188531#1 494188531#2 -1348312161 813224299#1 813224299#2 813224299#3 813224299#4 813224299#5 813224299#6 813224299#7 813224299#8 1049912323 -622931113#3 -622931113#2 -622931113#1"/>
    </vehicle>
    <vehicle id="75" depart="75.00">
        <route edges="992499750 622931066#2 494188531#2 132451706#0 132451706#1 132451706#2 132451706#3 132451706#4 -381277786#5 381277786#5 381277786#6"/>
    </vehicle>
    <vehicle id="76" depart="76.00">
        <route edges="-879886569#2 -879886569#1 -879886569#0 -813224299#3 -813224299#2 -813224299#1 1348312161 132451706#0 132451706#1 132451706#2 132451706#3 132451706#4"/>
    </vehicle>
    <vehicle id="77" depart="77.00">
        <route edges="-307938586#5 307938586#5 307938586#6 307938586#7 307938586#8 307938586#9 307938586#10 307938586#11 307938586#12 307938586#13 307938586#14 -813224299#1 1348312161 132451706#0 132451706#1 132451706#2 132451706#3 132451706#4 -381277786#5 -597812474#3"/>
    </vehicle>
    <vehicle id="78" depart="78.00">
        <route edges="-622931114#1 -622931114#0 -1049912323 -813224299#8 -813224299#7 -813224299#6 -813224299#5 -813224299#4 -879886570 307938586#12 307938586#13 307938586#14"/>
    </vehicle>
    <vehicle id="79" depart="79.00">
        <route edges="-597812475 -597812474#2 -597812474#1"/>
    </vehicle>
    <vehicle id="80" depart="80.00">
        <route edges="-254516798#3 622930889#0 622930889#1 622930889#2 622930889#3 -622931117#0 -799044668#1 -799044668#0 -813224299#1 1348312161 132451706#0 132451706#1 132451706#2 132451706#3 132451706#4 -381277786#5 -381277786#4 -381277786#3 -381277786#2 -381277786#1 381277786#1"/>
    </vehicle>
    <vehicle id="81" depart="81.00">
        <route edges="-597812475 597812474#3 381277786#5 381277786#6 -132451706#3 -132451706#2 -132451706#1 -132451706#0 -1348312161 813224299#1 813224299#2 813224299#3"/>
    </vehicle>
    <vehicle id="82" depart="82.00">
        <route edges="622931114#1 622931114#2 475140667#1 -879886569#9 -254518542#2 -254518542#1 -254518542#0"/>
    </vehicle>
    <vehicle id="83" depart="83.00">
        <route edges="-597812477#0 597812476#1 -381277786#3 -381277786#2 -381277786#1 -381277786#0 -1086178348 1086178347#3 1086178347#4 381277787#0 381277787#1 381277787#2 381277787#3 381277787#4 381277787#5"/>
    </vehicle>
    <vehicle id="84" depart="84.00">
        <route edges="-508858918#1 -508858918#0 307938586#2 307938586#3 307938586#4 307938586#5 307938586#6 307938586#7 307938586#8 307938586#9 307938586#10 -381274155"/>
    </vehicle>
    <vehicle id="85" depart="85.00">
        <route edges="813224299#8 813224299#9 813224299#10 813224299#11 -132452793#3 -132452793#2 132452791 307938586#1"/>
    </vehicle>
    <vehicle id="86" depart="86.00">
        <route edges="-992499718 -132451706#2 -132451706#1 -132451706#0 -1348312161 813224299#1 813224299#2 622930910"/>
    </vehicle>
    <vehicle id="87" depart="87.00">
        <route edges="622930911 307938586#4 307938586#5 307938586#6 307938586#7 307938586#8 307938586#9 307938586#10 307938586#11 307938586#12 307938586#13 307938586#14 -813224299#1 1348312161 -494188531#2 -494188531#1 -494188531#0 -494072148#4 -494072148#3 -494072148#2"/>
    </vehicle>
    <vehicle id="88" depart="88.00">
        <route edges="-307938586#13 -307938586#12 879886570 879886569#0 879886569#1 254518542#0 254518542#1 254518542#2 -879886569#8 -879886569#7 -879886569#6"/>
    </vehicle>
    <vehicle id="89" depart="89.00">
        <route edges="-813224299#9 1049912323"/>
    </vehicle>
    <vehicle id="90" depart="90.00">
        <route edges="494188531#0 494188531#1 494188531#2 -1348312161 813224299#1 813224299#2 813224299#3 813224299#4 813224299#5 813224299#6 813224299#7 813224299#8 1049912323 622931114#0 622931114#1 622931114#2 475140667#1"/>
    </vehicle>
    <vehicle id="91" depart="91.00">
        <route edges="879886571 381274155 307938586#11 307938586#12 307938586#13 307938586#14 -307938586#14 -307938586#13"/>
    </vehicle>
    <vehicle id="92" depart="92.00">
        <route edges="-813224299#2 813224299#2 813224299#3 813224299#4 813224299#5 813224299#6 813224299#7 813224299#8 1049912323 622931114#0 -622943477#1 -622943477#0"/>
    </vehicle>
    <vehicle id="93" depart="93.00">
        <route edges="622931114#2 475140667#1 -879886569#9 -254518542#2 -254518542#1 -254518542#0 -879886569#1 -879886569#0 -813224299#3 -813224299#2 799044668#0 -799044669 -622930847#0"/>
    </vehicle>
    <vehicle id="94" depart="94.00">
        <route edges="-494072148#3 -988530520"/>
    </vehicle>
    <vehicle id="95" depart="95.00">
        <route edges="-813224299#8 -813224299#7 813224299#7 813224299#8 813224299#9 813224299#10 622930911 -307938586#3 -622931111#2 -622931111#1 -622931033#1 -622931033#0"/>
    </vehicle>
    <vehicle id="96" depart="96.00">
        <route edges="-622930798#1 -622930798#0 -879886569#5 -879886569#4 -879886569#3 -879886569#2 -879886569#1 -879886569#0 813224299#4 813224299#5 813224299#6 813224299#7 813224299#8"/>
    </vehicle>
    <vehicle id="97" depart="97.00">
        <route edges="-879886569#4 -879886569#3 -879886569#2 -879886569#1 -879886569#0 -813224299#3 -813224299#2 -813224299#1 1348312161 132451706#0 132451706#1 597812474#0 597812474#1 597812476#0 597812477#0 597812477#1 672555015"/>
    </vehicle>
    <vehicle id="98" depart="98.00">
        <route edges="132451706#3 132451706#4 -381277786#5 381277786#5 381277786#6 -132451706#3 -132451706#2 -132451706#1 -132451706#0 -1348312161 813224299#1 813224299#2 813224299#3 813224299#4 813224299#5 813224299#6 813224299#7 813224299#8 813224299#9 813224299#10 813224299#11 -132452793#3 -132452793#2"/>
    </vehicle>
    <vehicle id="99" depart="99.00">
        <route edges="997203788 -254516798#0 -622931114#2 -622931114#1 -622943477#1 -622943477#0 622931113#3 622931114#0"/>
    </vehicle>
    <vehicle id="100" depart="100.00">
        <route edges="879886569#6 879886569#7 879886569#8 879886569#9 879886569#10 -622931114#2 -622931114#1 -622931114#0 -1049912323 813224299#9"/>
    </vehicle>
    <vehicle id="101" depart="101.00">
        <route edges="622931113#2 622931113#3 -1049912323 -813224299#8 -813224299#7 -813224299#6 -813224299#5 -813224299#4 -879886570 879886571 -381277787#6 -381277787#5 -381277787#4 -381277787#3"/>
    </vehicle>
    <vehicle id="102" depart="102.00">
        <route edges="-997054422 -622931113#1 -622931113#0 -622930780#0 132452793#4 622930911 -307938586#3 -622931111#2 -622931111#1 -622931111#0 -508858918#1"/>
    </vehicle>
    <vehicle id="103" depart="103.00">
        <route edges="-813224299#2 -813224299#1 1348312161 -1348312161"/>
    </vehicle>
    <vehicle id="104" depart="104.00">
        <route edges="-798637460 -254518542#1 -254518542#0 -879886569#1 -879886569#0 -813224299#3 -813224299#2 -813224299#1 1348312161 132451706#0 132451706#1 597812474#0 992499724"/>
    </vehicle>
    <vehicle id="105" depart="105.00">
        <route edges="-622930889#0 622930889#0 622930889#1 622930889#2 622930889#3 -622931117#0 -799044668#1 -799044668#0 813224299#2 622930910"/>
    </vehicle>
    <vehicle id="106" depart="106.00">
        <route edges="-879886569#7 -879886569#6 -879886569#5 -879886569#4"/>
    </vehicle>
    <vehicle id="107" depart="107.00">
        <route edges="879886569#3 879886569#4 879886569#5 879886569#6 879886569#7 879886569#8 879886569#9 879886569#10 -622931114#2 -622931114#1 -622943477#1 -622943477#0 -622931113#2 997054422"/>
    </vehicle>
    <vehicle id="108" depart="108.00">
        <route edges="132451707#0 1086178350 1086178347#2 1086178348 381277786#0 381277786#1 381277786#2 381277786#3 -597812476#1 -597812476#0 -597812474#1 597812474#1"/>
    </vehicle>
    <vehicle id="109" depart="109.00">
        <route edges="-381277786#4 -597812476#1 -597812476#0 -597812474#1 -597812474#0 -132451706#1 -132451706#0 -494188531#2 -622931066#2"/>
    </vehicle>
    <vehicle id="110" depart="110.00">
        <route edges="879886569#6 879886569#7 879886569#8 -254518542#2 -254518542#1 -254518542#0 -879886569#1 -879886569#0 -879886570 879886571 381274155 307938586#11"/>
    </vehicle>
    <vehicle id="111" depart="111.00">
        <route edges="132451706#1 -132451706#1 -132451706#0 -1348312161 813224299#1 813224299#2 813224299#3 813224299#4 813224299#5 813224299#6 813224299#7 813224299#8 813224299#9 813224299#10 813224299#11 622930780#0 622930780#1"/>
    </vehicle>
    <vehicle id="112" depart="112.00">
        <route edges="-1348312161 813224299#1 -307938586#14 -307938586#13 -307938586#12 307938586#12 307938586#13"/>
    </vehicle>
    <vehicle id="113" depart="113.00">
        <route edges="1049912323 -622931113#3 622943477#0"/>
    </vehicle>
    <vehicle id="114" depart="114.00">
        <route edges="-381277786#5 381277786#5 381277786#6 -132451706#3 -132451706#2 -132451706#1 -132451706#0 -1348312161 813224299#1 813224299#2 813224299#3 879886569#0 879886569#1 879886569#2 879886569#3 879886569#4 879886569#5 879886569#6 879886569#7 879886569#8"/>
    </vehicle>
    <vehicle id="115" depart="115.00">
        <route edges="-254518542#2 -254518542#1 -254518542#0 -879886569#1 -879886569#0 -813224299#3 -813224299#2 -813224299#1 1348312161 -494188531#2 -494188531#1 -494188531#0 -494072148#4 -494072148#3 -494072148#2 -494072148#1"/>
    </vehicle>
    <vehicle id="116" depart="116.00">
        <route edges="254518542#1 254518542#2 879886569#9 879886569#10 475140667#1"/>
    </vehicle>
    <vehicle id="117" depart="117.00">
        <route edges="-597812476#1 -597812476#0 -597812474#1 -597812474#0 -132451706#1 -132451706#0 -1348312161 813224299#1 -307938586#14 -307938586#13 -307938586#12 -307938586#11 -307938586#10 -307938586#9 -307938586#8 -307938586#7 -307938586#6"/>
    </vehicle>
    <vehicle id="118" depart="118.00">
        <route edges="798637460 879886569#3 879886569#4 879886569#5 622930798#0 622930798#1 -622930798#1"/>
    </vehicle>
    <vehicle id="119" depart="119.00">
        <route edges="254518542#1 798637460 -879886569#2 -879886569#1 -879886569#0 -879886570 -307938586#11 -307938586#10 -307938586#9 -307938586#8 -307938586#7 -307938586#6 -307938586#5 307938586#5 307938586#6 307938586#7 307938586#8"/>
    </vehicle>
    <vehicle id="120" depart="120.00">
        <route edges="-813224299#8 -813224299#7 -813224299#6 -813224299#5 -813224299#4 -879886570 307938586#12"/>
    </vehicle>
    <vehicle id="121" depart="121.00">
        <route edges="1086178347#4 381277787#0 381277787#1 381277787#2 381277787#3 381277787#4 381277787#5 381277787#6 381274155 307938586#11 879886570 879886569#0 879886569#1"/>
    </vehicle>
    <vehicle id="122" depart="122.00">
        <route edges="-494188531#1 494188531#1 494188531#2 132451706#0 132451706#1 597812474#0 597812474#1"/>
    </vehicle>
    <vehicle id="123" depart="123.00">
        <route edges="-597812477#0 -597812476#0 -597812474#1 -597812474#0 -132451706#1 -132451706#0 -1348312161 813224299#1 813224299#2 813224299#3 813224299#4 813224299#5 813224299#6 -813224299#6"/>
    </vehicle>
    <vehicle id="124" depart="124.00">
        <route edges="381277786#4 381277786#5 381277786#6 -132451706#3 -132451706#2 -132451706#1 -132451706#0 -1348312161 813224299#1 -307938586#14 -307938586#13 -307938586#12 -307938586#11 -307938586#10 -307938586#9 -307938586#8 -307938586#7 -307938586#6 -307938586#5 -307938586#4 -307938586#3 -622931111#2 -622931111#1 -622931111#0"/>
    </vehicle>
    <vehicle id="125" depart="125.00">
        <route edges="-622931111#1 622931111#1 622931111#2 307938586#3 307938586#4 307938586#5 307938586#6 307938586#7 307938586#8 307938586#9 307938586#10 307938586#11 879886570 879886569#0 879886569#1 879886569#2 879886569#3 879886569#4 879886569#5 622930798#0"/>
    </vehicle>
    <vehicle id="126" depart="126.00">
        <route edges="-254516798#3 -254516798#2 -254516798#1 -997203788"/>
    </vehicle>
    <vehicle id="127" depart="127.00">
        <route edges="997203788 -254516798#0 -622931114#2 -622931114#1 -622943477#1 -622943477#0 -622931113#2 997054422"/>
    </vehicle>
    <vehicle id="128" depart="128.00">