<?xml version="1.0" encoding="UTF-8"?>

<!-- generated on 2025-02-10 10:31:45 by Eclipse SUMO netconvert Version 1.21.0
<netconvertConfiguration xmlns:xsi="http://www.w3.org/2001/XMLSchema-instance" xsi:noNamespaceSchemaLocation="http://sumo.dlr.de/xsd/netconvertConfiguration.xsd">

    <input>
    </input>

    <output>
    </output>

    <projection>
    </projection>

    <processing>
    </processing>

    <tls_building>
    </tls_building>

    <ramp_guessing>
    </ramp_guessing>

</netconvertConfiguration>
-->

<net version="1.20" junctionCornerDetail="5" limitTurnSpeed="5.50" xmlns:xsi="http://www.w3.org/2001/XMLSchema-instance" xsi:noNamespaceSchemaLocation="http://sumo.dlr.de/xsd/net_file.xsd">

    <location netOffset="-644249.80,-1107342.45" convBoundary="0.00,0.00,2039.77,4120.94" origBoundary="76.316152,10.014849,76.334851,10.052042" projParameter="+proj=utm +zone=43 +ellps=WGS84 +datum=WGS84 +units=m +no_defs"/>

    <type id="highway.footway" priority="1" numLanes="1" speed="2.78" allow="pedestrian" oneway="1" width="2.00"/>
    <type id="highway.path" priority="1" numLanes="1" speed="5.56" allow="pedestrian bicycle" oneway="0" width="2.00"/>
    <type id="highway.residential" priority="3" numLanes="1" speed="13.89" disallow="tram rail_urban rail rail_electric rail_fast ship container cable_car subway aircraft wheelchair scooter drone" oneway="0"/>
    <type id="highway.secondary" priority="11" numLanes="1" speed="27.78" disallow="tram rail_urban rail rail_electric rail_fast ship container cable_car subway aircraft wheelchair scooter drone" oneway="0"/>
    <type id="highway.service" priority="1" numLanes="1" speed="5.56" allow="pedestrian delivery bicycle" oneway="0"/>
    <type id="highway.tertiary" priority="10" numLanes="1" speed="22.22" disallow="tram rail_urban rail rail_electric rail_fast ship container cable_car subway aircraft wheelchair scooter drone" oneway="0"/>
    <type id="highway.track" priority="1" numLanes="1" speed="5.56" allow="pedestrian motorcycle moped bicycle" oneway="0"/>
    <type id="highway.unclassified" priority="4" numLanes="1" speed="13.89" disallow="tram rail_urban rail rail_electric rail_fast ship container cable_car subway aircraft wheelchair scooter drone" oneway="0"/>

    <!-- Add all necessary edges and connections here -->
    <!-- Ensure all edges are properly connected -->

    <edge id=":10051141946_0" function="internal">
        <lane id=":10051141946_0_0" index="0" allow="pedestrian bicycle" speed="5.56" length="7.31" width="2.00" shape="1150.32,3298.60 1149.46,3298.97 1148.34,3299.96 1146.95,3301.56 1145.28,3303.77"/>
    </edge>
    <edge id=":10051141946_1" function="internal">
        <lane id=":10051141946_1_0" index="0" allow="pedestrian delivery bicycle" speed="5.56" length="8.28" shape="1150.32,3298.60 1142.07,3299.34"/>
    </edge>
    <edge id=":10051141946_2" function="internal">
        <lane id=":10051141946_2_0" index="0" allow="pedestrian delivery bicycle" speed="3.65" length="4.67" shape="1150.32,3298.60 1149.05,3297.91 1148.58,3297.15 1148.91,3296.32 1150.03,3295.42"/>
    </edge>
    <edge id=":10051141946_3" function="internal">
        <lane id=":10051141946_3_0" index="0" allow="pedestrian delivery bicycle" speed="5.56" length="8.28" shape="1141.79,3296.16 1150.03,3295.42"/>
    </edge>
    <edge id=":10051141946_4" function="internal">
        <lane id=":10051141946_4_0" index="0" allow="pedestrian bicycle" speed="5.56" length="12.75" width="2.00" shape="1141.79,3296.16 1145.59,3296.31 1147.43,3297.63 1147.33,3300.12 1145.28,3303.77"/>
    </edge>
    <edge id=":10051141946_5" function="internal">
        <lane id=":10051141946_5_0" index="0" allow="pedestrian delivery bicycle" speed="3.65" length="4.67" shape="1141.79,3296.16 1143.05,3296.85 1143.52,3297.61 1143.20,3298.44 1142.07,3299.34"/>
    </edge>
    <edge id=":10051141946_6" function="internal">
        <lane id=":10051141946_6_0" index="0" allow="pedestrian bicycle" speed="4.22" length="5.52" width="2.00" shape="1143.65,3302.61 1144.53,3301.04 1144.56,3299.97 1143.74,3299.41 1142.07,3299.34"/>
    </edge>
    <edge id=":10051141946_7" function="internal">
        <lane id=":10051141946_7_0" index="0" allow="pedestrian bicycle" speed="5.56" length="9.69" width="2.00" shape="1143.65,3302.61 1145.95,3299.50 1147.77,3297.27 1149.14,3295.91 1150.03,3295.42"/>
    </edge>
    <edge id=":10051141946_8" function="internal">
        <lane id=":10051141946_8_0" index="0" allow="pedestrian bicycle" speed="2.89" length="2.92" width="2.00" shape="1143.65,3302.61 1144.50,3302.29 1145.05,3302.37 1145.31,3302.87 1145.28,3303.77"/>
    </edge>
    <edge id=":10051141955_0" function="internal">
        <lane id=":10051141955_0_0" index="0" allow="pedestrian delivery bicycle" speed="4.76" length="5.47" shape="1072.44,3215.53 1070.90,3215.16 1069.78,3215.44 1069.08,3216.36 1068.81,3217.92"/>
    </edge>
    <edge id=":10051141955_1" function="internal">
        <lane id=":10051141955_1_0" index="0" allow="pedestrian delivery bicycle" speed="5.56" length="9.34" shape="1072.44,3215.53 1069.55,3214.20 1067.47,3212.77 1066.22,3211.25 1065.78,3209.63"/>
    </edge>
    <edge id=":10051141955_2" function="internal">
        <lane id=":10051141955_2_0" index="0" allow="pedestrian delivery bicycle" speed="3.65" length="4.67" shape="1072.44,3215.53 1071.61,3214.34 1071.52,3213.45 1072.19,3212.85 1073.59,3212.54"/>
    </edge>
    <edge id=":10051141955_3" function="internal">
        <lane id=":10051141955_3_0" index="0" allow="pedestrian delivery bicycle" speed="5.56" length="4.85" shape="1069.00,3214.11 1073.59,3212.54"/>
    </edge>
    <edge id=":10051141955_4" function="internal">
        <lane id=":10051141955_4_0" index="0" allow="pedestrian delivery bicycle" speed="5.56" length="3.82" shape="1069.00,3214.11 1068.81,3217.92"/>
    </edge>
    <edge id=":10051141955_5" function="internal">
        <lane id=":10051141955_5_0" index="0" allow="pedestrian delivery bicycle" speed="4.46" length="8.05" shape="1069.00,3214.11 1066.52,3214.20 1065.15,3213.48 1064.91,3211.96 1065.78,3209.63"/>
    </edge>
    <edge id=":10051141955_6" function="internal">
        <lane id=":10051141955_6_0" index="0" allow="pedestrian delivery bicycle" speed="5.56" length="8.18" shape="1065.61,3217.81 1065.78,3209.63"/>
    </edge>
    <edge id=":10051141955_7" function="internal">
        <lane id=":10051141955_7_0" index="0" allow="pedestrian delivery bicycle" speed="5.56" length="12.03" shape="1065.61,3217.81 1066.21,3214.38 1067.74,3212.36 1070.20,3211.75 1073.59,3212.54"/>
    </edge>
    <edge id=":10051141955_8" function="internal">
        <lane id=":10051141955_8_0" index="0" allow="pedestrian delivery bicycle" speed="3.65" length="4.67" shape="1065.61,3217.81 1066.45,3216.64 1067.26,3216.27 1068.05,3216.69 1068.81,3217.92"/>
    </edge>
    <edge id=":10051141963_0" function="internal">
        <lane id=":10051141963_0_0" index="0" allow="pedestrian delivery bicycle" speed="5.24" length="5.24" shape="1351.90,3431.53 1350.92,3430.61 1349.82,3430.23 1348.61,3430.38 1347.27,3431.06"/>
    </edge>
    <edge id=":10051141963_1" function="internal">
        <lane id=":10051141963_1_0" index="0" disallow="tram rail_urban rail rail_electric rail_fast ship container cable_car subway aircraft wheelchair scooter drone" speed="22.22" length="9.41" shape="1351.90,3431.53 1346.14,3424.09"/>
    </edge>
    <edge id=":10051141963_2" function="internal">
        <lane id=":10051141963_2_0" index="0" disallow="tram rail_urban rail rail_electric rail_fast ship container cable_car subway aircraft wheelchair scooter drone" speed="22.22" length="9.41" shape="1348.67,3422.13 1354.43,3429.57"/>
    </edge>
    <edge id=":10051141963_3" function="internal">
        <lane id=":10051141963_3_0" index="0" allow="pedestrian delivery bicycle" speed="6.82" length="3.32" shape="1348.67,3422.13 1350.09,3424.64 1350.14,3425.07"/>
    </edge>
    <edge id=":10051141963_7" function="internal">
        <lane id=":10051141963_7_0" index="0" allow="pedestrian delivery bicycle" speed="6.82" length="7.13" shape="1350.14,3425.07 1350.34,3426.97 1349.40,3429.11 1347.27,3431.06"/>
    </edge>
    <edge id=":10051141963_4" function="internal">
        <lane id=":10051141963_4_0" index="0" allow="pedestrian delivery bicycle" speed="4.98" length="5.07" shape="1345.46,3428.43 1346.49,3427.48 1346.95,3426.44 1346.83,3425.31 1346.14,3424.09"/>
    </edge>
    <edge id=":10051141963_5" function="internal">
        <lane id=":10051141963_5_0" index="0" allow="pedestrian delivery bicycle" speed="7.01" length="10.18" shape="1345.46,3428.43 1348.00,3427.14 1350.34,3426.90 1352.49,3427.71 1354.43,3429.57"/>
    </edge>
    <edge id=":10051141963_6" function="internal">
        <lane id=":10051141963_6_0" index="0" allow="pedestrian delivery bicycle" speed="3.65" length="4.67" shape="1345.46,3428.43 1346.90,3428.41 1347.69,3428.84 1347.81,3429.73 1347.27,3431.06"/>
    </edge>
    <edge id=":10051141965_0" function="internal">
        <lane id=":10051141965_0_0" index="0" allow="pedestrian bicycle" speed="4.92" length="4.60" width="2.00" shape="900.91,3337.95 900.65,3336.88 900.01,3336.14 898.98,3335.71 897.58,3335.60"/>
    </edge>
    <edge id=":10051141965_1" function="internal">
        <lane id=":10051141965_1_0" index="0" allow="pedestrian delivery bicycle" speed="5.56" length="7.55" shape="900.91,3337.95 900.45,3330.41"/>
    </edge>
    <edge id=":10051141965_2" function="internal">
        <lane id=":10051141965_2_0" index="0" allow="pedestrian bicycle" speed="5.56" length="9.13" width="2.00" shape="900.91,3337.95 901.20,3336.05 902.32,3334.46 904.26,3333.18 907.04,3332.22"/>
    </edge>
    <edge id=":10051141965_3" function="internal">
        <lane id=":10051141965_3_0" index="0" allow="pedestrian delivery bicycle" speed="3.65" length="4.67" shape="900.91,3337.95 901.64,3336.70 902.41,3336.25 903.24,3336.60 904.11,3337.75"/>
    </edge>
    <edge id=":10051141965_4" function="internal">
        <lane id=":10051141965_4_0" index="0" allow="pedestrian bicycle" speed="5.42" length="5.43" width="2.00" shape="907.53,3334.16 905.97,3334.72 904.88,3335.51 904.26,3336.52 904.11,3337.75"/>
    </edge>
    <edge id=":10051141965_5" function="internal">
        <lane id=":10051141965_5_0" index="0" allow="pedestrian bicycle" speed="5.56" length="10.09" width="2.00" shape="907.53,3334.16 904.63,3334.88 902.61,3335.28 900.56,3335.48 897.58,3335.60"/>
    </edge>
    <edge id=":10051141965_6" function="internal">
        <lane id=":10051141965_6_0" index="0" allow="pedestrian bicycle" speed="5.56" length="9.51" width="2.00" shape="907.53,3334.16 904.56,3334.56 902.39,3334.07 901.02,3332.69 900.45,3330.41"/>
    </edge>
    <edge id=":10051141965_7" function="internal">
        <lane id=":10051141965_7_0" index="0" allow="pedestrian bicycle" speed="2.89" length="2.92" width="2.00" shape="907.53,3334.16 906.68,3333.86 906.31,3333.43 906.43,3332.89 907.04,3332.22"/>
    </edge>
    <edge id=":10051141965_8" function="internal">
        <lane id=":10051141965_8_0" index="0" allow="pedestrian bicycle" speed="4.65" length="4.69" width="2.00" shape="903.65,3330.22 903.92,3331.40 904.58,3332.13 905.62,3332.40 907.04,3332.22"/>
    </edge>
    <edge id=":10051141965_9" function="internal">
        <lane id=":10051141965_9_0" index="0" allow="pedestrian delivery bicycle" speed="5.56" length="7.55" shape="903.65,3330.22 904.11,3337.75"/>
    </edge>
    <edge id=":10051141965_10" function="internal">
        <lane id=":10051141965_10_0" index="0" allow="pedestrian bicycle" speed="5.56" length="9.28" width="2.00" shape="903.65,3330.22 903.39,3332.50 902.29,3334.15 900.35,3335.19 897.58,3335.60"/>
    </edge>
    <edge id=":10051141965_11" function="internal">
        <lane id=":10051141965_11_0" index="0" allow="pedestrian delivery bicycle" speed="3.65" length="4.67" shape="903.65,3330.22 902.92,3331.46 902.15,3331.91 901.33,3331.56 900.45,3330.41"/>
    </edge>
    <edge id=":10051141965_12" function="internal">
        <lane id=":10051141965_12_0" index="0" allow="pedestrian bicycle" speed="4.82" length="4.98" width="2.00" shape="897.51,3333.60 898.87,3333.36 899.81,3332.75 900.34,3331.77 900.45,3330.41"/>
    </edge>
    <edge id=":10051141965_13" function="internal">
        <lane id=":10051141965_13_0" index="0" allow="pedestrian bicycle" speed="5.56" length="9.66" width="2.00" shape="897.51,3333.60 900.38,3333.49 902.33,3333.29 904.26,3332.91 907.04,3332.22"/>
    </edge>
    <edge id=":10051141965_14" function="internal">
        <lane id=":10051141965_14_0" index="0" allow="pedestrian bicycle" speed="5.56" length="8.75" width="2.00" shape="897.51,3333.60 900.30,3333.78 902.33,3334.54 903.60,3335.86 904.11,3337.75"/>
    </edge>
    <edge id=":10051141965_15" function="internal">
        <lane id=":10051141965_15_0" index="0" allow="pedestrian bicycle" speed="2.89" length="2.92" width="2.00" shape="897.51,3333.60 898.28,3334.08 898.55,3334.57 898.31,3335.08 897.58,3335.60"/>
    </edge>
    <edge id=":10051141968_0" function="internal">
        <lane id=":10051141968_0_0" index="0" allow="pedestrian bicycle" speed="5.05" length="8.54" width="2.00" shape="865.20,3335.70 862.70,3335.14 861.68,3334.06 862.13,3332.48 864.06,3330.38"/>
    </edge>
    <edge id=":10051141968_1" function="internal">
        <lane id=":10051141968_1_0" index="0" allow="pedestrian bicycle" speed="2.89" length="2.92" width="2.00" shape="865.20,3335.70 864.50,3335.13 864.30,3334.61 864.60,3334.14 865.39,3333.71"/>
    </edge>
    <edge id=":10051141968_2" function="internal">
        <lane id=":10051141968_2_0" index="0" disallow="tram rail_urban rail rail_electric rail_fast ship container cable_car subway aircraft wheelchair scooter drone" speed="8.33" length="8.48" shape="855.58,3333.59 861.94,3327.98"/>
        <lane id=":10051141968_2_1" index="1" disallow="tram rail_urban rail rail_electric rail_fast ship container cable_car subway aircraft wheelchair scooter drone" speed="8.33" length="8.48" shape="857.70,3335.99 864.06,3330.38"/>
    </edge>
    <edge id=":10051141968_4" function="internal">
        <lane id=":10051141968_4_0" index="0" allow="pedestrian bicycle" speed="6.95" length="8.25" width="2.00" shape="857.70,3335.99 859.34,3334.83 861.16,3334.06 863.18,3333.69 865.39,3333.71"/>
    </edge>
    <edge id=":10051141972_0" function="internal">
        <lane id=":10051141972_0_0" index="0" allow="pedestrian delivery bicycle" speed="5.56" length="11.15" shape="872.99,3153.51 874.94,3155.99 876.79,3157.52 879.03,3158.45 882.13,3159.12"/>
    </edge>
    <edge id=":10051141972_1" function="internal">
        <lane id=":10051141972_1_0" index="0" allow="pedestrian delivery bicycle" speed="5.56" length="10.25" shape="872.99,3153.51 874.97,3155.86 876.55,3157.41 877.68,3159.13 878.32,3161.98"/>
        <lane id=":10051141972_1_1" index="1" allow="pedestrian delivery bicycle" speed="5.56" length="9.23" shape="872.99,3153.51 874.36,3155.81 874.87,3157.60 874.97,3159.55 875.13,3162.29"/>
    </edge>
    <edge id=":1025326821_0" function="internal">
        <lane id=":1025326821_0_0" index="0" disallow="tram rail_urban rail rail_electric rail_fast ship container cable_car subway aircraft wheelchair scooter drone" speed="9.18" length="8.68" shape="1300.06,2674.83 1297.96,2675.46 1296.13,2676.50 1294.56,2677.94 1293.25,2679.79"/>
    </edge>
    <edge id=":1025326821_1" function="internal">
        <lane id=":1025326821_1_0" index="0" disallow="tram rail_urban rail rail_electric rail_fast ship container cable_car subway aircraft wheelchair scooter drone" speed="7.47" length="12.78" shape="1300.06,2674.83 1296.99,2674.84 1294.64,2673.56 1292.99,2670.99 1292.05,2667.12"/>
    </edge>
    <edge id=":1025326821_2" function="internal">
        <lane id=":1025326821_2_0" index="0" disallow="tram rail_urban rail rail_electric rail_fast ship container cable_car subway aircraft wheelchair scooter drone" speed="3.65" length="4.67" shape="1300.06,2674.83 1298.73,2674.27 1298.18,2673.56 1298.42,2672.70 1299.45,2671.69"/>
    </edge>
    <edge id=":1025326821_3" function="internal">
        <lane id=":1025326821_3_0" index="0" disallow="tram rail_urban rail rail_electric rail_fast ship container cable_car subway aircraft wheelchair scooter drone" speed="5.85" length="7.42" shape="1295.22,2666.71 1295.76,2669.14 1296.65,2670.78 1297.88,2671.63 1299.45,2671.69"/>
    </edge>
    <edge id=":1025326821_4" function="internal">
        <lane id=":1025326821_4_0" index="0" disallow="tram rail_urban rail rail_electric rail_fast ship container cable_car subway aircraft wheelchair scooter drone" speed="13.96" length="13.49" shape="1295.22,2666.71 1295.54,2670.23 1295.42,2673.48 1294.70,2676.61 1293.25,2679.79"/>
    </edge>
    <edge id=":1025326821_5" function="internal">
        <lane id=":1025326821_5_0" index="0" disallow="tram rail_urban rail rail_electric rail_fast ship container cable_car subway aircraft wheelchair scooter drone" speed="3.65" length="1.44" shape="1295.22,2666.71 1294.58,2668.00"/>
    </edge>
    <edge id=":1025326821_9" function="internal">
        <lane id=":1025326821_9_0" index="0" disallow="tram rail_urban rail rail_electric rail_fast ship container cable_car subway aircraft wheelchair scooter drone" speed="3.65" length="3.23" shape="1294.58,2668.00 1293.84,2668.50 1293.00,2668.21 1292.05,2667.12"/>
    </edge>
    <edge id=":1025326821_6" function="internal">
        <lane id=":1025326821_6_0" index="0" disallow="tram rail_urban rail rail_electric rail_fast ship container cable_car subway aircraft wheelchair scooter drone" speed="12.90" length="11.48" shape="1290.48,2678.19 1291.87,2675.33 1292.44,2672.89 1292.43,2670.33 1292.05,2667.12"/>
    </edge>
    <edge id=":1025326821_7" function="internal">
        <lane id=":1025326821_7_0" index="0" disallow="tram rail_urban rail rail_electric rail_fast ship container cable_car subway aircraft wheelchair scooter drone" speed="10.47" length="3.29" shape="1290.48,2678.19 1292.20,2675.77 1292.43,2675.56"/>
    </edge>
    <edge id=":1025326821_8" function="internal">
        <lane id=":1025326821_8_0" index="0" disallow="tram rail_urban rail rail_electric rail_fast ship container cable_car subway aircraft wheelchair scooter drone" speed="3.65" length="1.34" shape="1290.48,2678.19 1291.68,2677.59"/>
    </edge>
    <edge id=":1025326821_10" function="internal">
        <lane id=":1025326821_10_0" index="0" disallow="tram rail_urban rail rail_electric rail_fast ship container cable_car subway aircraft wheelchair scooter drone" speed="10.47" length="8.15" shape="1292.43,2675.56 1294.27,2673.88 1296.69,2672.52 1299.45,2671.69"/>
    </edge>
    <edge id=":1025326821_11" function="internal">
        <lane id=":1025326821_11_0" index="0" disallow="tram rail_urban rail rail_electric rail_fast ship container cable_car subway aircraft wheelchair scooter drone" speed="3.65" length="3.33" shape="1291.68,2677.59 1291.77,2677.55 1292.66,2677.60 1293.16,2678.35 1293.25,2679.79"/>
    </edge>
    <edge id=":1025326822_0" function="internal">
        <lane id=":1025326822_0_0" index="0" disallow="tram rail_urban rail rail_electric rail_fast ship container cable_car subway aircraft wheelchair scooter drone" speed="5.61" length="9.39" shape="1287.89,2700.02 1286.46,2697.51 1284.89,2696.55 1283.18,2697.14 1281.32,2699.30"/>
    </edge>
    <edge id=":1025326822_1" function="internal">
        <lane id=":1025326822_1_0" index="0" disallow="tram rail_urban rail rail_electric rail_fast ship container cable_car subway aircraft wheelchair scooter drone" speed="22.22" length="19.25" shape="1287.89,2700.02 1286.11,2695.98 1283.84,2691.29 1281.44,2686.67 1279.26,2682.83"/>
    </edge>
    <edge id=":1025326822_2" function="internal">
        <lane id=":1025326822_2_0" index="0" disallow="tram rail_urban rail rail_electric rail_fast ship container cable_car subway aircraft wheelchair scooter drone" speed="13.07" length="19.65" shape="1287.89,2700.02 1286.39,2695.05 1286.05,2690.23 1286.86,2685.57 1288.82,2681.08"/>
    </edge>
    <edge id=":1025326822_3" function="internal">
        <lane id=":1025326822_3_0" index="0" disallow="tram rail_urban rail rail_electric rail_fast ship container cable_car subway aircraft wheelchair scooter drone" speed="7.45" length="15.98" shape="1287.89,2700.02 1286.88,2695.76 1287.86,2692.75 1290.83,2690.99 1295.79,2690.49"/>
    </edge>
    <edge id=":1025326822_4" function="internal">
        <lane id=":1025326822_4_0" index="0" disallow="tram rail_urban rail rail_electric rail_fast ship container cable_car subway aircraft wheelchair scooter drone" speed="3.65" length="4.67" shape="1287.89,2700.02 1288.17,2698.61 1288.76,2697.93 1289.65,2698.00 1290.85,2698.81"/>
    </edge>
    <edge id=":1025326822_5" function="internal">
        <lane id=":1025326822_5_0" index="0" disallow="tram rail_urban rail rail_electric rail_fast ship container cable_car subway aircraft wheelchair scooter drone" speed="5.65" length="8.59" shape="1295.08,2693.68 1292.42,2693.95 1290.83,2694.89 1290.30,2696.51 1290.85,2698.81"/>
    </edge>
    <edge id=":1025326822_6" function="internal">
        <lane id=":1025326822_6_0" index="0" disallow="tram rail_urban rail rail_electric rail_fast ship container cable_car subway aircraft wheelchair scooter drone" speed="10.90" length="15.51" shape="1295.08,2693.68 1290.50,2693.95 1286.68,2694.98 1283.62,2696.76 1281.32,2699.30"/>
    </edge>
    <edge id=":1025326822_7" function="internal">
        <lane id=":1025326822_7_0" index="0" disallow="tram rail_urban rail rail_electric rail_fast ship container cable_car subway aircraft wheelchair scooter drone" speed="12.37" length="20.02" shape="1295.08,2693.68 1290.59,2692.93 1286.46,2690.87 1282.68,2687.50 1279.26,2682.83"/>
    </edge>
    <edge id=":1025326822_8" function="internal">
        <lane id=":1025326822_8_0" index="0" disallow="tram rail_urban rail rail_electric rail_fast ship container cable_car subway aircraft wheelchair scooter drone" speed="7.88" length="18.96" shape="1295.08,2693.68 1289.68,2692.79 1286.84,2690.39 1286.55,2686.49 1288.82,2681.08"/>
    </edge>
    <edge id=":1025326822_9" function="internal">
        <lane id=":1025326822_9_0" index="0" disallow="tram rail_urban rail rail_electric rail_fast ship container cable_car subway aircraft wheelchair scooter drone" speed="3.67" length="4.77" shape="1295.08,2693.68 1294.06,2692.62 1293.84,2691.73 1294.42,2691.02 1295.79,2690.49"/>
    </edge>
    <edge id=":1025326822_10" function="internal">
        <lane id=":1025326822_10_0" index="0" disallow="tram rail_urban rail rail_electric rail_fast ship container cable_car subway aircraft wheelchair scooter drone" speed="6.39" length="11.97" shape="1291.59,2682.67 1290.21,2686.03 1290.45,2688.45 1292.31,2689.94 1295.79,2690.49"/>
    </edge>
    <edge id=":1025326822_11" function="internal">
        <lane id=":1025326822_11_0" index="0" disallow="tram rail_urban rail rail_electric rail_fast ship container cable_car subway aircraft wheelchair scooter drone" speed="12.09" length="16.74" shape="1291.59,2682.67 1289.94,2686.48 1289.26,2690.44 1289.56,2694.55 1290.85,2698.81"/>
    </edge>
    <edge id=":1025326822_12" function="internal">
        <lane id=":1025326822_12_0" index="0" disallow="tram rail_urban rail rail_electric rail_fast ship container cable_car subway aircraft wheelchair scooter drone" speed="22.22" length="19.54" shape="1291.59,2682.67 1281.32,2699.30"/>
    </edge>
    <edge id=":1025326822_13" function="internal">
        <lane id=":1025326822_13_0" index="0" disallow="tram rail_urban rail rail_electric rail_fast ship container cable_car subway aircraft wheelchair scooter drone" speed="7.41" length="5.13" shape="1291.59,2682.67 1288.56,2686.62 1288.42,2686.68"/>
    </edge>
    <edge id=":1025326822_14" function="internal">
        <lane id=":1025326822_14_0" index="0" disallow="tram rail_urban rail rail_electric rail_fast ship container cable_car subway aircraft wheelchair scooter drone" speed="3.65" length="1.44" shape="1291.59,2682.67 1290.30,2683.32"/>
    </edge>
    <edge id=":1025326822_25" function="internal">
        <lane id=":1025326822_25_0" index="0" disallow="tram rail_urban rail rail_electric rail_fast ship container cable_car subway aircraft wheelchair scooter drone" speed="7.41" length="11.52" shape="1288.42,2686.68 1285.49,2687.96 1282.39,2686.70 1279.26,2682.83"/>
    </edge>
    <edge id=":1025326822_26" function="internal">
        <lane id=":1025326822_26_0" index="0" disallow="tram rail_urban rail rail_electric rail_fast ship container cable_car subway aircraft wheelchair scooter drone" speed="3.65" length="3.23" shape="1290.30,2683.32 1289.41,2683.26 1288.91,2682.52 1288.82,2681.08"/>
    </edge>
    <edge id=":1025326822_15" function="internal">
        <lane id=":1025326822_15_0" index="0" disallow="tram rail_urban rail rail_electric rail_fast ship container cable_car subway aircraft wheelchair scooter drone" speed="5.69" length="9.22" shape="1281.99,2681.17 1283.73,2683.31 1285.44,2684.01 1287.14,2683.26 1288.82,2681.08"/>
    </edge>
    <edge id=":1025326822_16" function="internal">
        <lane id=":1025326822_16_0" index="0" disallow="tram rail_urban rail rail_electric rail_fast ship container cable_car subway aircraft wheelchair scooter drone" speed="11.55" length="17.39" shape="1281.99,2681.17 1284.95,2685.18 1288.23,2688.07 1291.85,2689.84 1295.79,2690.49"/>
    </edge>
    <edge id=":1025326822_17" function="internal">
        <lane id=":1025326822_17_0" index="0" disallow="tram rail_urban rail rail_electric rail_fast ship container cable_car subway aircraft wheelchair scooter drone" speed="22.22" length="19.75" shape="1281.99,2681.17 1284.21,2685.07 1286.68,2689.85 1289.03,2694.70 1290.85,2698.81"/>
    </edge>
    <edge id=":1025326822_18" function="internal">
        <lane id=":1025326822_18_0" index="0" disallow="tram rail_urban rail rail_electric rail_fast ship container cable_car subway aircraft wheelchair scooter drone" speed="11.11" length="18.82" shape="1281.99,2681.17 1283.46,2685.23 1283.81,2690.17 1283.09,2695.14 1281.32,2699.30"/>
    </edge>
    <edge id=":1025326822_19" function="internal">
        <lane id=":1025326822_19_0" index="0" disallow="tram rail_urban rail rail_electric rail_fast ship container cable_car subway aircraft wheelchair scooter drone" speed="3.65" length="4.67" shape="1281.99,2681.17 1281.93,2682.61 1281.46,2683.36 1280.57,2683.44 1279.26,2682.83"/>
    </edge>
    <edge id=":1025326822_20" function="internal">
        <lane id=":1025326822_20_0" index="0" disallow="tram rail_urban rail rail_electric rail_fast ship container cable_car subway aircraft wheelchair scooter drone" speed="10.15" length="15.60" shape="1278.65,2697.54 1280.55,2693.79 1281.29,2690.09 1280.86,2686.44 1279.26,2682.83"/>
    </edge>
    <edge id=":1025326822_21" function="internal">
        <lane id=":1025326822_21_0" index="0" disallow="tram rail_urban rail rail_electric rail_fast ship container cable_car subway aircraft wheelchair scooter drone" speed="22.22" length="19.35" shape="1278.65,2697.54 1288.82,2681.08"/>
    </edge>
    <edge id=":1025326822_22" function="internal">
        <lane id=":1025326822_22_0" index="0" disallow="tram rail_urban rail rail_electric rail_fast ship container cable_car subway aircraft wheelchair scooter drone" speed="12.12" length="3.93" shape="1278.65,2697.54 1281.29,2694.62"/>
    </edge>
    <edge id=":1025326822_23" function="internal">
        <lane id=":1025326822_23_0" index="0" disallow="tram rail_urban rail rail_electric rail_fast ship container cable_car subway aircraft wheelchair scooter drone" speed="7.39" length="4.50" shape="1278.65,2697.54 1281.59,2694.13"/>
    </edge>
    <edge id=":1025326822_24" function="internal">
        <lane id=":1025326822_24_0" index="0" disallow="tram rail_urban rail rail_electric rail_fast ship container cable_car subway aircraft wheelchair scooter drone" speed="3.65" length="1.44" shape="1278.65,2697.54 1279.97,2696.97"/>
    </edge>
    <edge id=":1025326822_27" function="internal">
        <lane id=":1025326822_27_0" index="0" disallow="tram rail_urban rail rail_electric rail_fast ship container cable_car subway aircraft wheelchair scooter drone" speed="12.12" length="15.41" shape="1281.29,2694.62 1281.52,2694.36 1285.34,2692.12 1290.10,2690.84 1295.79,2690.49"/>
    </edge>
    <edge id=":1025326822_28" function="internal">
        <lane id=":1025326822_28_0" index="0" disallow="tram rail_urban rail rail_electric rail_fast ship container cable_car subway aircraft wheelchair scooter drone" speed="7.39" length="12.93" shape="1281.59,2694.13 1282.11,2693.52 1285.30,2692.40 1288.21,2694.16 1290.85,2698.81"/>
    </edge>
    <edge id=":1025326822_29" function="internal">
        <lane id=":1025326822_29_0" index="0" disallow="tram rail_urban rail rail_electric rail_fast ship container cable_car subway aircraft wheelchair scooter drone" speed="3.65" length="3.23" shape="1279.97,2696.97 1280.86,2697.08 1281.31,2697.86 1281.32,2699.30"/>
    </edge>
    <edge id=":1025326827_0" function="internal">
        <lane id=":1025326827_0_0" index="0" allow="pedestrian bicycle" speed="5.30" length="4.93" width="2.00" shape="1288.00,2923.21 1287.59,2922.25 1286.80,2921.57 1285.61,2921.18 1284.02,2921.07"/>
    </edge>
    <edge id=":1025326827_1" function="internal">
        <lane id=":1025326827_1_0" index="0" disallow="tram rail_urban rail rail_electric rail_fast ship container cable_car subway aircraft wheelchair scooter drone" speed="22.22" length="7.00" shape="1288.00,2923.21 1286.81,2916.31"/>
    </edge>
    <edge id=":1025326827_2" function="internal">